<?xml version="1.0" encoding="UTF-8"?>

<!-- generated on Wed Aug  2 11:06:19 2017 by SUMO polyconvert Version 0.30.0
<?xml version="1.0" encoding="UTF-8"?>

<configuration xmlns:xsi="http://www.w3.org/2001/XMLSchema-instance" xsi:noNamespaceSchemaLocation="http://sumo.dlr.de/xsd/polyconvertConfiguration.xsd">

    <input>
        <net-file value="callao.net.xml"/>
        <osm-files value="callao.osm"/>
        <type-file value="typemap.xml"/>
    </input>

    <output>
        <output-file value="callao.poly.xml"/>
    </output>

    <processing>
        <poi-layer-offset value="5"/>
    </processing>

</configuration>
-->

<additional xmlns:xsi="http://www.w3.org/2001/XMLSchema-instance" xsi:noNamespaceSchemaLocation="http://sumo.dlr.de/xsd/additional_file.xsd">
    <location netOffset="-265677.22,1334561.85" convBoundary="-629.39,-283.21,2187.65,3719.75" origBoundary="-77.158377,-12.066613,-77.132453,-12.030539" projParameter="+proj=utm +zone=18 +ellps=WGS84 +datum=WGS84 +units=m +no_defs"/>

    <poly id="101600571" type="unknown" color="51,128,255" fill="0" layer="-1.00" shape="1494.94,1253.63 1513.81,1253.61 1538.56,1252.63 1553.99,1250.54 1565.26,1247.82 1575.37,1244.13 1587.94,1238.01 1608.49,1225.36 1638.57,1205.44"/>
    <poly id="104031754" type="building" color="255,230,230" fill="1" layer="2.00" shape="368.16,474.39 376.64,483.62 388.49,472.85 380.00,463.62 368.16,474.39"/>
    <poly id="104031820" type="building" color="255,230,230" fill="1" layer="2.00" shape="363.25,506.76 364.43,505.55 369.80,500.49 395.20,475.73 409.47,490.24 377.54,521.27 363.25,506.76"/>
    <poly id="104031829" type="building" color="255,230,230" fill="1" layer="2.00" shape="364.43,505.55 358.49,499.33 355.96,501.71 347.99,493.35 365.99,476.41 374.73,485.58 364.65,495.09 369.80,500.49 364.43,505.55"/>
    <poly id="104031832" type="building" color="255,230,230" fill="1" layer="2.00" shape="983.83,1810.60 983.11,1805.34 979.85,1801.13 974.90,1799.12 969.60,1799.82 965.37,1803.08 963.34,1808.00 964.06,1813.26 967.32,1817.46 972.27,1819.48 977.57,1818.76 981.80,1815.52 983.83,1810.60"/>
    <poly id="104031844" type="building" color="255,230,230" fill="1" layer="2.00" shape="255.60,414.82 272.19,430.10 281.70,419.92 265.12,404.63 255.60,414.82"/>
    <poly id="104031859" type="building" color="255,230,230" fill="0" layer="2.00" shape="291.48,508.85 276.31,516.31"/>
    <poly id="104031878" type="leisure" color="207,245,201" fill="1" layer="0.00" shape="444.74,562.51 450.50,554.52 453.38,545.11 453.09,535.28 449.64,526.07 443.41,518.44 435.03,513.20 425.42,510.89 415.57,511.76 406.51,515.72 399.04,522.58 394.25,531.48 392.67,541.46 394.49,551.40 399.49,560.19 407.13,566.87 416.54,570.67 426.70,571.19 436.46,568.36 444.74,562.51"/>
    <poly id="104031903" type="building" color="255,230,230" fill="0" layer="2.00" shape="287.50,501.53 273.36,508.67"/>
    <poly id="104070768" type="building" color="255,230,230" fill="1" layer="2.00" shape="1405.19,1426.17 1396.84,1412.54 1412.32,1403.16 1419.26,1414.51 1420.69,1416.79 1405.19,1426.17"/>
    <poly id="104070778" type="building" color="255,230,230" fill="1" layer="2.00" shape="680.50,1032.27 694.28,1049.17 704.60,1040.86 690.83,1023.97 680.50,1032.27"/>
    <poly id="104070803" type="building" color="255,230,230" fill="1" layer="2.00" shape="1439.75,1447.29 1431.72,1434.45 1428.83,1429.87 1420.69,1416.79 1419.26,1414.51 1424.29,1411.41 1418.27,1401.76 1433.92,1392.12 1440.25,1402.26 1450.75,1395.79 1470.92,1428.08 1439.75,1447.29"/>
    <poly id="104070806" type="building" color="255,230,230" fill="1" layer="2.00" shape="846.29,970.24 882.55,949.67 826.71,852.55 790.44,873.14 846.29,970.24"/>
    <poly id="104070807" type="building" color="255,230,230" fill="1" layer="2.00" shape="1428.83,1429.87 1356.24,1473.97 1348.19,1460.89 1405.19,1426.17 1420.69,1416.79 1428.83,1429.87"/>
    <poly id="104070809" type="building" color="255,230,230" fill="1" layer="2.00" shape="1396.07,1537.59 1385.75,1520.81 1409.45,1506.44 1422.44,1527.58 1409.11,1535.67 1406.42,1531.31 1396.07,1537.59"/>
    <poly id="104070826" type="building" color="255,230,230" fill="1" layer="2.00" shape="1381.58,1523.25 1358.34,1486.27 1394.03,1464.12 1401.18,1475.57 1413.98,1496.41 1417.28,1502.07 1409.45,1506.44 1385.75,1520.81 1381.58,1523.25"/>
    <poly id="104070829" type="building" color="255,230,230" fill="1" layer="2.00" shape="911.84,1268.45 887.17,1238.74 973.23,1169.94 996.11,1198.45 911.84,1268.45"/>
    <poly id="104070832" type="building" color="255,230,230" fill="1" layer="2.00" shape="1347.67,1279.72 1355.63,1275.01 1343.78,1254.89 1336.06,1260.30 1347.67,1279.72"/>
    <poly id="104070835" type="building" color="255,230,230" fill="1" layer="2.00" shape="1169.69,1340.05 1184.05,1356.38 1197.45,1344.76 1183.09,1328.43 1169.69,1340.05"/>
    <poly id="104070847" type="building" color="255,230,230" fill="1" layer="2.00" shape="1505.65,1474.15 1492.40,1452.18 1518.59,1436.60 1531.84,1458.58 1505.65,1474.15"/>
    <poly id="104070858" type="building" color="255,230,230" fill="1" layer="2.00" shape="1340.25,1321.96 1331.49,1306.16 1356.08,1293.23 1362.95,1305.93 1361.72,1309.72 1340.25,1321.96"/>
    <poly id="104070869" type="building" color="255,230,230" fill="1" layer="2.00" shape="1280.03,1303.05 1309.98,1340.74 1330.76,1324.68 1325.77,1317.72 1329.14,1315.36 1324.29,1307.98 1317.53,1295.87 1308.29,1281.32 1280.03,1303.05"/>
    <poly id="104070871" type="building" color="255,230,230" fill="1" layer="2.00" shape="1324.29,1307.98 1317.53,1295.87 1344.94,1280.80 1348.54,1287.26 1352.38,1285.15 1355.53,1290.80 1324.29,1307.98"/>
    <poly id="104070882" type="building" color="255,230,230" fill="1" layer="2.00" shape="1308.29,1281.32 1331.23,1264.56 1336.93,1271.76 1312.80,1288.27 1308.29,1281.32"/>
    <poly id="104070888" type="building" color="255,230,230" fill="1" layer="2.00" shape="1439.75,1447.29 1402.93,1469.79 1394.96,1456.87 1431.72,1434.45 1439.75,1447.29"/>
    <poly id="104070895" type="building" color="255,230,230" fill="1" layer="2.00" shape="1167.05,1614.63 1166.07,1599.15 1183.48,1598.06 1184.46,1613.55 1167.05,1614.63"/>
    <poly id="104070896" type="building" color="255,230,230" fill="1" layer="2.00" shape="1413.98,1496.41 1479.71,1456.54 1466.90,1435.71 1401.18,1475.57 1413.98,1496.41"/>
    <poly id="104070915" type="building" color="255,230,230" fill="1" layer="2.00" shape="1394.82,1697.49 1394.23,1678.97 1386.88,1678.18 1381.75,1676.93 1376.37,1673.22 1372.01,1667.59 1370.09,1661.49 1369.64,1656.60 1369.69,1650.76 1370.46,1646.87 1354.09,1638.46 1351.07,1648.43 1350.50,1658.65 1351.91,1666.95 1355.04,1674.28 1359.65,1681.38 1365.97,1688.00 1372.55,1693.42 1383.06,1696.67 1394.82,1697.49"/>
    <poly id="104070937" type="building" color="255,230,230" fill="1" layer="2.00" shape="944.72,1704.93 943.08,1680.68 1095.82,1670.53 1097.45,1694.77 944.72,1704.93"/>
    <poly id="104070959" type="building" color="255,230,230" fill="1" layer="2.00" shape="935.23,1554.03 933.53,1529.18 1084.53,1518.97 1086.23,1543.82 935.23,1554.03"/>
    <poly id="104070966" type="building" color="255,230,230" fill="1" layer="2.00" shape="1147.35,1310.31 1167.42,1297.78 1135.56,1247.37 1115.48,1259.90 1147.35,1310.31"/>
    <poly id="104070972" type="building" color="255,230,230" fill="1" layer="2.00" shape="1150.70,1635.31 1149.28,1617.59 1153.15,1617.28 1151.74,1599.59 1147.27,1599.94 1145.91,1582.88 1190.68,1579.35 1194.87,1631.84 1150.70,1635.31"/>
    <poly id="104070975" type="building" color="255,230,230" fill="1" layer="2.00" shape="854.55,1194.56 830.60,1165.95 914.77,1096.41 938.72,1125.02 854.55,1194.56"/>
    <poly id="111881453" type="unknown" color="51,128,255" fill="0" layer="-1.00" shape="1754.94,1686.46 1780.73,1714.89"/>
    <poly id="111883388" type="unknown" color="51,128,255" fill="0" layer="-1.00" shape="854.80,777.20 839.74,785.92 742.94,878.84"/>
    <poly id="111883634" type="unknown" color="51,128,255" fill="0" layer="-1.00" shape="1554.45,1621.09 1578.27,1656.95 1594.91,1685.54"/>
    <poly id="111884701" type="unknown" color="51,128,255" fill="0" layer="-1.00" shape="1335.47,1192.87 1340.21,1189.16 1380.35,1157.92"/>
    <poly id="111887434" type="unknown" color="51,128,255" fill="0" layer="-1.00" shape="1139.74,1526.32 1118.61,1361.85 1115.17,1353.11 1107.65,1343.18 1100.10,1337.33 1023.41,1338.49 940.53,1344.79 922.56,1335.50 903.81,1311.81 883.43,1276.53 633.00,979.70 631.07,962.75 742.94,878.84"/>
    <poly id="111891792" type="unknown" color="51,128,255" fill="0" layer="-1.00" shape="1733.40,1705.51 1752.96,1688.21 1754.94,1686.46 1786.03,1656.25 1787.89,1654.44 1814.18,1629.99"/>
    <poly id="111911358" type="unknown" color="51,128,255" fill="0" layer="-1.00" shape="1367.63,1797.82 1363.67,1819.18 1348.68,1900.08 1347.54,1920.77 1348.37,1940.58 1368.57,2084.26 1369.97,2095.21 1373.85,2117.52"/>
    <poly id="111929044" type="unknown" color="51,128,255" fill="0" layer="-1.00" shape="1618.00,1720.30 1688.93,1677.64"/>
    <poly id="111939173" type="unknown" color="51,128,255" fill="0" layer="-1.00" shape="742.94,878.84 1009.66,1212.59 1023.41,1338.49 1025.01,1353.13"/>
    <poly id="111939419" type="unknown" color="51,128,255" fill="0" layer="-1.00" shape="1492.24,1656.85 1554.45,1621.09 1583.79,1603.19 1624.74,1576.17"/>
    <poly id="111940428" type="unknown" color="51,128,255" fill="0" layer="-1.00" shape="1380.35,1157.92 1421.61,1124.29"/>
    <poly id="111947851" type="unknown" color="51,128,255" fill="0" layer="-1.00" shape="1787.89,1654.44 1814.22,1681.43"/>
    <poly id="111952519" type="unknown" color="51,128,255" fill="0" layer="-1.00" shape="1800.83,1607.92 1770.46,1636.47 1731.92,1672.68 1702.86,1700.01"/>
    <poly id="111961191" type="unknown" color="51,128,255" fill="0" layer="-1.00" shape="1583.79,1603.19 1606.19,1637.94 1625.14,1667.44"/>
    <poly id="123386040" type="unknown" color="51,128,255" fill="0" layer="-1.00" shape="1806.18,1269.46 1776.37,1230.81 1774.45,1228.40 1744.18,1190.55 1728.38,1168.14"/>
    <poly id="14076940" type="unknown" color="51,128,255" fill="0" layer="-1.00" shape="1522.35,607.59 1518.42,640.79 1514.45,684.38 1513.47,741.68"/>
    <poly id="14076942" type="unknown" color="51,128,255" fill="0" layer="-1.00" shape="1089.47,863.79 1099.76,860.32 1108.03,857.53 1128.80,837.57 1188.13,787.80 1212.20,768.19 1231.35,752.60 1261.60,727.95 1319.75,704.26 1373.23,690.62"/>
    <poly id="14076943" type="unknown" color="51,128,255" fill="0" layer="-1.00" shape="1184.69,1001.35 1192.05,995.53 1228.34,966.88 1289.62,918.90 1364.11,859.64 1443.41,797.02 1513.47,741.68 1593.32,680.28 1669.10,618.75"/>
    <poly id="14077002" type="unknown" color="51,128,255" fill="0" layer="-1.00" shape="1213.89,631.54 1290.30,625.20 1380.12,618.20 1522.35,607.59 1672.95,595.79 1766.99,588.92 1834.78,583.95 1875.29,579.74 1988.36,567.78"/>
    <poly id="14077076" type="unknown" color="51,128,255" fill="0" layer="-1.00" shape="1233.03,690.73 1257.75,722.76 1261.60,727.95 1308.00,782.29 1364.11,859.64 1426.19,935.19"/>
    <poly id="14077168" type="unknown" color="51,128,255" fill="0" layer="-1.00" shape="1056.85,433.31 1121.96,434.06 1224.29,435.22"/>
    <poly id="14077276" type="unknown" color="51,128,255" fill="0" layer="-1.00" shape="1970.88,501.41 1949.99,517.87 1875.29,579.74 1842.48,603.53 1802.98,635.00 1727.55,695.08 1646.52,759.74 1573.55,817.75 1501.71,875.02 1426.19,935.19 1349.37,996.07 1289.75,1043.89 1245.78,1078.92"/>
    <poly id="14077377" type="unknown" color="51,128,255" fill="0" layer="-1.00" shape="2173.79,593.56 2149.44,612.60 2072.58,672.73 1967.24,755.12 1846.10,849.93 1769.68,909.81 1693.32,969.40 1620.97,1026.01 1544.41,1085.89 1466.80,1146.60 1407.15,1193.26 1363.34,1227.53"/>
    <poly id="154796060" type="residential" color="235,235,227" fill="1" layer="-11.00" shape="1875.32,1920.05 1831.52,2121.31 1433.40,2084.58 1461.52,1967.19 1435.47,1928.60 1461.52,1824.67 1875.32,1920.05"/>
    <poly id="154802840" type="unknown" color="51,128,255" fill="0" layer="-1.00" shape="1426.73,2087.68 1440.48,2034.14 1446.78,2007.68 1453.94,1980.48 1456.22,1972.33 1455.97,1964.30 1436.64,1933.76 1433.88,1929.41 1433.93,1923.09 1458.16,1818.90"/>
    <poly id="154803714" type="unknown" color="51,128,255" fill="0" layer="-1.00" shape="1477.17,1823.33 1469.70,1855.48 1463.73,1883.04 1458.22,1906.85 1457.74,1908.91"/>
    <poly id="154807045" type="unknown" color="51,128,255" fill="0" layer="-1.00" shape="1666.43,1643.49 1625.14,1667.44 1594.91,1685.54"/>
    <poly id="154807046" type="unknown" color="51,128,255" fill="0" layer="-1.00" shape="1646.66,1613.79 1606.19,1637.94 1578.27,1656.95"/>
    <poly id="170622377" type="historic" color="128,255,128" fill="1" layer="2.00" shape="225.91,539.07 210.88,516.90 199.95,495.62 190.95,473.20 204.95,492.96 216.37,514.05 225.91,539.07"/>
    <poly id="170622377#1" type="tourism" color="207,245,201" fill="1" layer="2.00" shape="225.91,539.07 210.88,516.90 199.95,495.62 190.95,473.20 204.95,492.96 216.37,514.05 225.91,539.07"/>
    <poly id="262719331" type="unknown" color="51,128,255" fill="0" layer="-1.00" shape="820.45,404.49 797.18,372.37"/>
    <poly id="262719332" type="unknown" color="51,128,255" fill="0" layer="-1.00" shape="732.52,345.96 757.89,362.17 777.71,375.04 783.78,378.97 784.87,379.68"/>
    <poly id="262719479" type="tourism" color="207,245,201" fill="1" layer="-10.00" shape="470.03,491.37 488.19,453.09 454.33,437.23 436.17,475.52 470.03,491.37"/>
    <poly id="262719479#1" type="tourism" color="207,245,201" fill="1" layer="2.00" shape="470.03,491.37 488.19,453.09 454.33,437.23 436.17,475.52 470.03,491.37"/>
    <poly id="262719679" type="tourism" color="207,245,201" fill="1" layer="-10.00" shape="746.20,402.13 703.43,371.55 732.52,345.96 783.78,378.97 746.20,402.13"/>
    <poly id="262719679#1" type="tourism" color="207,245,201" fill="1" layer="2.00" shape="746.20,402.13 703.43,371.55 732.52,345.96 783.78,378.97 746.20,402.13"/>
    <poly id="262771266" type="tourism" color="207,245,201" fill="1" layer="-10.00" shape="1274.44,458.03 1369.87,429.29 1371.51,417.05 1235.80,398.31 1232.65,432.05 1253.53,433.80 1258.50,440.17 1268.58,441.90 1267.50,458.36 1274.44,458.03"/>
    <poly id="262771969" type="tourism" color="207,245,201" fill="1" layer="-10.00" shape="300.44,362.35 354.72,289.84 357.69,283.66 355.10,274.94 265.34,217.38 231.36,231.75 167.31,211.36 158.54,211.30 154.96,218.78 157.86,229.87 179.14,255.37 300.44,362.35"/>
    <poly id="262772188" type="tourism" color="207,245,201" fill="1" layer="-10.00" shape="490.17,352.04 516.48,317.72 529.20,304.06 556.33,277.39 570.20,271.75 593.15,268.00 603.95,246.09 598.71,236.37 583.60,244.61 554.78,258.72 534.41,249.51 504.58,270.39 480.80,288.86 475.40,302.33 464.18,336.90 490.17,352.04"/>
    <poly id="262772226" type="tourism" color="207,245,201" fill="1" layer="-10.00" shape="540.70,334.40 555.26,294.59 552.93,292.44 544.39,298.30 536.19,305.86 521.50,322.72 540.70,334.40"/>
    <poly id="267355789" type="tourism" color="207,245,201" fill="1" layer="-10.00" shape="400.61,595.63 427.15,602.36 455.30,600.67 466.66,578.53 478.95,533.83 472.43,529.56 458.14,534.04 450.99,560.79 425.43,576.30 412.35,572.75 400.61,595.63"/>
    <poly id="267355812" type="tourism" color="207,245,201" fill="1" layer="-10.00" shape="365.60,586.17 370.99,588.13 391.54,571.83 398.16,563.83 390.17,550.75 393.06,525.87 412.09,507.64 404.83,498.78 382.31,521.19 376.45,530.72 365.78,540.21 331.62,507.02 308.85,528.29 365.60,586.17"/>
    <poly id="279252155" type="unknown" color="51,128,255" fill="0" layer="-1.00" shape="1090.54,112.36 1073.32,215.84 1072.17,222.53 1070.37,232.66 1068.65,244.19 1054.11,345.02 1052.65,355.14"/>
    <poly id="27925399" type="unknown" color="51,128,255" fill="0" layer="-1.00" shape="1219.55,1461.83 1260.06,1436.31 1264.46,1433.54 1273.31,1427.69"/>
    <poly id="27925469" type="unknown" color="51,128,255" fill="0" layer="-1.00" shape="480.11,516.53 467.17,511.23"/>
    <poly id="27925470" type="unknown" color="51,128,255" fill="0" layer="-1.00" shape="470.55,503.97 483.49,509.36 534.54,534.01 536.46,534.97 607.91,571.09 674.53,613.07 701.68,630.17 739.31,653.58 745.53,658.93"/>
    <poly id="27925478" type="unknown" color="51,128,255" fill="0" layer="-1.00" shape="1274.04,1441.31 1273.31,1427.69"/>
    <poly id="279260221" type="unknown" color="51,128,255" fill="0" layer="-1.00" shape="2187.65,530.55 2178.82,529.17 2142.04,524.67 2107.67,520.31 2069.58,516.05 2001.43,506.88 1991.45,505.24 1983.39,503.90 1974.12,501.88 1970.88,501.41 1933.11,495.79 1863.63,485.48 1856.63,484.44 1847.12,483.02 1837.10,481.62 1831.70,480.72 1710.38,462.67 1700.84,461.25 1692.97,460.13"/>
    <poly id="27945277" type="unknown" color="51,128,255" fill="0" layer="-1.00" shape="1533.57,1229.05 1609.47,1168.80 1684.96,1109.42 1758.31,1051.69 1836.03,990.65 1909.52,932.76 1988.46,870.66 2002.34,858.80"/>
    <poly id="27945286" type="unknown" color="51,128,255" fill="0" layer="-1.00" shape="1522.35,607.59 1535.39,618.28 1593.32,680.28 1646.52,759.74 1708.80,835.63 1769.68,909.81 1828.48,981.46 1836.03,990.65 1883.49,1048.49 1888.18,1054.21"/>
    <poly id="27945301" type="unknown" color="51,128,255" fill="0" layer="-1.00" shape="423.07,491.02 426.90,482.96 432.88,471.99 457.33,427.18 490.58,363.73 504.79,337.67 512.99,322.63 515.83,318.63 516.48,317.72 519.74,313.14 529.20,304.06 540.22,295.84 556.58,285.64 570.45,279.92 583.32,277.82 593.47,275.63 599.00,273.22 601.98,269.66 606.49,264.28"/>
    <poly id="27945311" type="unknown" color="51,128,255" fill="0" layer="-1.00" shape="1894.60,1919.84 1882.53,1917.76 1847.38,1909.47 1763.83,1889.96 1735.71,1883.39 1715.67,1878.72 1689.68,1872.65 1626.06,1857.92 1598.07,1851.44 1568.54,1844.60 1477.17,1823.33 1458.16,1818.90 1367.63,1797.82 1356.87,1795.59 1338.53,1749.00 1253.86,1578.36 1248.34,1568.11 1239.17,1545.74 1219.45,1474.83 1219.50,1468.36 1219.55,1461.83"/>
    <poly id="27945312" type="unknown" color="51,128,255" fill="0" layer="-1.00" shape="1924.13,1781.68 1912.36,1778.34 1906.36,1776.02 1833.81,1662.41 1814.18,1629.99 1800.83,1607.92 1780.94,1575.10 1747.25,1517.75 1744.94,1510.45 1769.92,1397.30 1771.37,1382.00"/>
    <poly id="279549526" type="unknown" color="51,128,255" fill="1" layer="-1.00" shape="1484.44,1381.73 1455.96,1382.93 1428.53,1378.51 1403.42,1363.36 1390.47,1344.77 1381.26,1327.05 1383.34,1300.13 1392.87,1276.98 1411.70,1259.48 1442.64,1248.58 1494.94,1253.63 1517.24,1271.46 1527.38,1290.10 1532.83,1310.58 1532.70,1329.27 1525.71,1350.73 1511.84,1364.30 1484.44,1381.73"/>
    <poly id="279627972" type="unknown" color="51,128,255" fill="0" layer="-1.00" shape="1847.12,483.02 1860.99,356.73 1869.09,306.24 1870.22,302.12"/>
    <poly id="279794527" type="boundary.administrative" color="128,0,51" fill="0" layer="-12.00" shape="786.27,3719.75 775.80,3717.07 768.12,3717.66 762.62,3715.02 756.49,3710.87 748.70,3700.24 743.42,3693.91 728.44,3683.41 708.95,3669.77 700.88,3667.26 694.49,3661.99 684.62,3654.37 677.46,3641.31 500.31,3688.56 448.92,3702.41 438.72,3702.11 427.69,3698.57 417.32,3690.71 410.61,3677.69 409.41,3668.16 413.92,3635.79 420.18,3596.93 433.13,3519.23 489.98,3458.07 478.60,3335.23 482.62,3068.14 487.05,3018.24 492.15,2991.26 496.13,2970.98 500.19,2942.70 505.48,2917.46 507.05,2908.17 452.00,2874.03 421.74,2853.90 398.30,2833.18 385.62,2820.13 353.17,2782.48 317.97,2738.98 274.95,2690.23 220.78,2626.26 150.40,2541.64 73.03,2450.91 -97.46,2246.19 -206.41,2116.31 -260.17,2052.14 -295.37,2011.22 -361.31,1928.79 -373.57,1919.40 -418.57,1906.29 -418.93,1897.43 -396.21,1903.23 -368.63,1912.74 -359.52,1918.23 -353.41,1924.10 -334.01,1947.38 -303.89,1985.64 -173.01,2141.01 -90.18,2239.99 -25.70,2318.29 66.40,2427.95 143.12,2520.18 207.21,2595.04 262.00,2660.09 268.01,2655.16 287.83,2676.28 282.88,2684.23 304.79,2710.13 304.20,2702.13 302.15,2694.98 308.34,2693.31 322.08,2704.21 338.52,2722.28 347.38,2735.31 351.96,2744.22 340.84,2753.20 371.82,2789.97 364.72,2775.00 361.61,2763.08 371.32,2773.54 382.05,2787.24 398.30,2805.31 413.29,2818.18 425.36,2828.41 438.89,2837.18 454.77,2847.25 477.67,2854.12 495.06,2864.20 505.65,2866.59 519.92,2876.37 537.57,2877.85 377.76,2575.11 353.47,2588.69 298.00,2470.58 352.63,2443.60 396.20,2564.38 379.16,2574.20 538.11,2872.44 544.02,2874.13 618.53,2745.22 664.08,2768.05 717.67,2797.65 1025.10,2958.25 1218.09,2896.86 1227.84,2876.19 1061.90,2793.42 1069.69,2778.13 1234.74,2864.15 1270.98,2799.16 948.08,2632.17 953.49,2621.19 1275.55,2787.31 1307.04,2730.28 1285.48,2712.17 1231.05,2681.70 1092.69,2609.31 1099.61,2596.17 1435.86,2772.12 1482.61,2777.25 1448.59,2747.16 1396.68,2720.18 1306.22,2672.13 1295.29,2656.27 1294.17,2634.23 1312.35,2593.51 1333.09,2553.26 1063.21,2409.15 1072.03,2394.32 1167.61,2444.13 1230.95,2477.24 1235.66,2472.10 1240.61,2466.09 1244.92,2458.13 1247.95,2451.24 1252.29,2442.19 1257.24,2432.50 1263.31,2419.15 1266.96,2413.34 1269.38,2404.28 1269.45,2395.64 1266.75,2387.19 1264.06,2378.30 1260.78,2362.28 1260.63,2353.21 1261.33,2345.22 1262.04,2336.37 1261.46,2329.22 1271.40,2309.85 1259.48,2310.19 1257.85,2301.32 1257.05,2294.18 1254.36,2284.21 1253.38,2275.13 1252.36,2267.77 1252.44,2258.28 1251.44,2250.26 1227.73,2262.18 1244.86,2247.19 1240.67,2239.15 1250.67,2238.59 1250.80,2223.03 1251.71,2216.12 1253.68,2208.12 1255.22,2202.09 1246.71,2202.46 1213.31,2203.50 1213.79,2195.08 1236.33,2194.81 1217.44,2081.20 1206.20,2077.01 1208.44,2062.33 1262.39,2073.13 1264.00,2054.98 1233.50,2013.47 1214.53,1990.62 1205.62,1959.87 1182.22,1932.44 1161.67,1921.26 1130.79,1927.30 1083.51,1986.58 1054.77,2016.18 1051.06,2030.84 1056.69,2044.29 914.99,2211.13 805.27,2341.01 669.41,2221.30 726.09,2154.74 779.57,2090.32 918.24,1930.37 915.03,1879.15 730.89,1894.59 729.20,1879.57 727.61,1865.54 916.10,1850.40 906.59,1760.86 727.61,1773.36 722.62,1730.71 717.63,1687.99 902.41,1669.85 889.90,1582.41 709.16,1592.06 708.05,1552.22 704.49,1508.85 887.20,1494.01 880.71,1398.42 705.51,1414.79 698.51,1412.23 696.49,1398.12 698.68,1390.73 879.38,1371.00 876.31,1307.63 630.59,1004.55 585.95,958.92 561.07,983.41 580.79,1001.90 552.82,1024.49 522.23,1052.13 472.81,1095.86 428.38,1078.24 425.39,1096.55 148.41,1317.11 149.61,1345.31 136.78,1353.68 118.45,1339.44 87.10,1356.10 63.12,1337.59 -3.02,1267.99 -123.46,1438.53 -231.26,1593.30 -348.61,1693.31 -421.20,1725.60 -427.71,1715.39 -349.41,1686.62 -236.32,1587.00 -138.37,1428.79 -31.41,1270.59 -26.91,1239.61 -101.29,1136.12 131.43,949.04 153.18,890.00 198.86,855.11 233.96,888.93 230.65,878.95 395.53,739.98 398.70,714.93 361.67,668.05 367.85,662.73 370.63,671.67 400.07,707.31 426.33,615.91 358.31,596.95 348.56,628.79 347.56,634.52 342.28,632.09 355.04,587.30 343.61,579.43 332.44,569.61 324.21,559.60 314.93,547.85 306.08,537.52 259.70,559.18 254.00,570.65 248.59,569.91 245.71,557.35 252.92,549.03 288.72,534.02 283.90,524.69 295.76,516.73 291.48,508.85 287.50,501.53 242.15,418.09 229.67,424.90 222.82,409.98 178.53,432.27 173.75,451.21 230.89,557.06 235.88,577.39 227.62,585.80 222.07,583.94 220.89,568.06 214.73,550.94 160.04,455.16 157.35,446.14 158.00,438.19 160.60,431.66 199.63,410.88 183.38,379.21 154.70,335.46 134.12,309.95 111.06,288.20 92.01,276.38 82.30,267.45 81.51,260.10 86.06,248.67 82.77,234.60 76.16,232.82 72.06,242.74 67.98,248.75 61.82,246.32 55.27,241.51 47.45,234.32 40.25,231.02 33.05,225.35 30.15,217.33 34.86,212.18 37.93,199.67 32.23,194.86 21.33,202.35 5.49,188.17 -37.33,167.96 -69.33,153.22 -121.01,126.02 -168.23,98.20 -200.17,75.24 -229.75,49.08 -261.66,22.25 -284.02,-1.05 -308.47,-29.55 -319.00,-42.82 -327.95,-51.28 -335.00,-57.32 -418.60,17.34 -423.25,12.98 -346.17,-60.83 -343.47,-69.57 -375.28,-83.95 -398.37,-103.61 -409.72,-112.90 -417.21,-118.09 -418.68,-123.67 -417.36,-128.10 -420.00,-130.94 -427.18,-135.10 -431.73,-137.14 -436.52,-139.28 -446.47,-145.63 -453.45,-151.73 -462.34,-155.47 -470.21,-155.31 -481.24,-161.46 -488.00,-166.70 -494.35,-170.21 -500.92,-173.92 -506.83,-178.31 -515.51,-183.76 -524.17,-190.12 -532.84,-199.04 -542.77,-207.53 -555.86,-218.23 -566.64,-228.48 -579.53,-239.16 -590.29,-249.63 -597.03,-257.67 -601.89,-261.62 -608.87,-267.49 -615.00,-271.65 -621.98,-277.11 -629.39,-283.21"/>
    <poly id="279794527#1" type="natural" color="140,196,107" fill="0" layer="2.00" shape="786.27,3719.75 775.80,3717.07 768.12,3717.66 762.62,3715.02 756.49,3710.87 748.70,3700.24 743.42,3693.91 728.44,3683.41 708.95,3669.77 700.88,3667.26 694.49,3661.99 684.62,3654.37 677.46,3641.31 500.31,3688.56 448.92,3702.41 438.72,3702.11 427.69,3698.57 417.32,3690.71 410.61,3677.69 409.41,3668.16 413.92,3635.79 420.18,3596.93 433.13,3519.23 489.98,3458.07 478.60,3335.23 482.62,3068.14 487.05,3018.24 492.15,2991.26 496.13,2970.98 500.19,2942.70 505.48,2917.46 507.05,2908.17 452.00,2874.03 421.74,2853.90 398.30,2833.18 385.62,2820.13 353.17,2782.48 317.97,2738.98 274.95,2690.23 220.78,2626.26 150.40,2541.64 73.03,2450.91 -97.46,2246.19 -206.41,2116.31 -260.17,2052.14 -295.37,2011.22 -361.31,1928.79 -373.57,1919.40 -418.57,1906.29 -418.93,1897.43 -396.21,1903.23 -368.63,1912.74 -359.52,1918.23 -353.41,1924.10 -334.01,1947.38 -303.89,1985.64 -173.01,2141.01 -90.18,2239.99 -25.70,2318.29 66.40,2427.95 143.12,2520.18 207.21,2595.04 262.00,2660.09 268.01,2655.16 287.83,2676.28 282.88,2684.23 304.79,2710.13 304.20,2702.13 302.15,2694.98 308.34,2693.31 322.08,2704.21 338.52,2722.28 347.38,2735.31 351.96,2744.22 340.84,2753.20 371.82,2789.97 364.72,2775.00 361.61,2763.08 371.32,2773.54 382.05,2787.24 398.30,2805.31 413.29,2818.18 425.36,2828.41 438.89,2837.18 454.77,2847.25 477.67,2854.12 495.06,2864.20 505.65,2866.59 519.92,2876.37 537.57,2877.85 377.76,2575.11 353.47,2588.69 298.00,2470.58 352.63,2443.60 396.20,2564.38 379.16,2574.20 538.11,2872.44 544.02,2874.13 618.53,2745.22 664.08,2768.05 717.67,2797.65 1025.10,2958.25 1218.09,2896.86 1227.84,2876.19 1061.90,2793.42 1069.69,2778.13 1234.74,2864.15 1270.98,2799.16 948.08,2632.17 953.49,2621.19 1275.55,2787.31 1307.04,2730.28 1285.48,2712.17 1231.05,2681.70 1092.69,2609.31 1099.61,2596.17 1435.86,2772.12 1482.61,2777.25 1448.59,2747.16 1396.68,2720.18 1306.22,2672.13 1295.29,2656.27 1294.17,2634.23 1312.35,2593.51 1333.09,2553.26 1063.21,2409.15 1072.03,2394.32 1167.61,2444.13 1230.95,2477.24 1235.66,2472.10 1240.61,2466.09 1244.92,2458.13 1247.95,2451.24 1252.29,2442.19 1257.24,2432.50 1263.31,2419.15 1266.96,2413.34 1269.38,2404.28 1269.45,2395.64 1266.75,2387.19 1264.06,2378.30 1260.78,2362.28 1260.63,2353.21 1261.33,2345.22 1262.04,2336.37 1261.46,2329.22 1271.40,2309.85 1259.48,2310.19 1257.85,2301.32 1257.05,2294.18 1254.36,2284.21 1253.38,2275.13 1252.36,2267.77 1252.44,2258.28 1251.44,2250.26 1227.73,2262.18 1244.86,2247.19 1240.67,2239.15 1250.67,2238.59 1250.80,2223.03 1251.71,2216.12 1253.68,2208.12 1255.22,2202.09 1246.71,2202.46 1213.31,2203.50 1213.79,2195.08 1236.33,2194.81 1217.44,2081.20 1206.20,2077.01 1208.44,2062.33 1262.39,2073.13 1264.00,2054.98 1233.50,2013.47 1214.53,1990.62 1205.62,1959.87 1182.22,1932.44 1161.67,1921.26 1130.79,1927.30 1083.51,1986.58 1054.77,2016.18 1051.06,2030.84 1056.69,2044.29 914.99,2211.13 805.27,2341.01 669.41,2221.30 726.09,2154.74 779.57,2090.32 918.24,1930.37 915.03,1879.15 730.89,1894.59 729.20,1879.57 727.61,1865.54 916.10,1850.40 906.59,1760.86 727.61,1773.36 722.62,1730.71 717.63,1687.99 902.41,1669.85 889.90,1582.41 709.16,1592.06 708.05,1552.22 704.49,1508.85 887.20,1494.01 880.71,1398.42 705.51,1414.79 698.51,1412.23 696.49,1398.12 698.68,1390.73 879.38,1371.00 876.31,1307.63 630.59,1004.55 585.95,958.92 561.07,983.41 580.79,1001.90 552.82,1024.49 522.23,1052.13 472.81,1095.86 428.38,1078.24 425.39,1096.55 148.41,1317.11 149.61,1345.31 136.78,1353.68 118.45,1339.44 87.10,1356.10 63.12,1337.59 -3.02,1267.99 -123.46,1438.53 -231.26,1593.30 -348.61,1693.31 -421.20,1725.60 -427.71,1715.39 -349.41,1686.62 -236.32,1587.00 -138.37,1428.79 -31.41,1270.59 -26.91,1239.61 -101.29,1136.12 131.43,949.04 153.18,890.00 198.86,855.11 233.96,888.93 230.65,878.95 395.53,739.98 398.70,714.93 361.67,668.05 367.85,662.73 370.63,671.67 400.07,707.31 426.33,615.91 358.31,596.95 348.56,628.79 347.56,634.52 342.28,632.09 355.04,587.30 343.61,579.43 332.44,569.61 324.21,559.60 314.93,547.85 306.08,537.52 259.70,559.18 254.00,570.65 248.59,569.91 245.71,557.35 252.92,549.03 288.72,534.02 283.90,524.69 295.76,516.73 291.48,508.85 287.50,501.53 242.15,418.09 229.67,424.90 222.82,409.98 178.53,432.27 173.75,451.21 230.89,557.06 235.88,577.39 227.62,585.80 222.07,583.94 220.89,568.06 214.73,550.94 160.04,455.16 157.35,446.14 158.00,438.19 160.60,431.66 199.63,410.88 183.38,379.21 154.70,335.46 134.12,309.95 111.06,288.20 92.01,276.38 82.30,267.45 81.51,260.10 86.06,248.67 82.77,234.60 76.16,232.82 72.06,242.74 67.98,248.75 61.82,246.32 55.27,241.51 47.45,234.32 40.25,231.02 33.05,225.35 30.15,217.33 34.86,212.18 37.93,199.67 32.23,194.86 21.33,202.35 5.49,188.17 -37.33,167.96 -69.33,153.22 -121.01,126.02 -168.23,98.20 -200.17,75.24 -229.75,49.08 -261.66,22.25 -284.02,-1.05 -308.47,-29.55 -319.00,-42.82 -327.95,-51.28 -335.00,-57.32 -418.60,17.34 -423.25,12.98 -346.17,-60.83 -343.47,-69.57 -375.28,-83.95 -398.37,-103.61 -409.72,-112.90 -417.21,-118.09 -418.68,-123.67 -417.36,-128.10 -420.00,-130.94 -427.18,-135.10 -431.73,-137.14 -436.52,-139.28 -446.47,-145.63 -453.45,-151.73 -462.34,-155.47 -470.21,-155.31 -481.24,-161.46 -488.00,-166.70 -494.35,-170.21 -500.92,-173.92 -506.83,-178.31 -515.51,-183.76 -524.17,-190.12 -532.84,-199.04 -542.77,-207.53 -555.86,-218.23 -566.64,-228.48 -579.53,-239.16 -590.29,-249.63 -597.03,-257.67 -601.89,-261.62 -608.87,-267.49 -615.00,-271.65 -621.98,-277.11 -629.39,-283.21"/>
    <poly id="279913613" type="unknown" color="51,128,255" fill="0" layer="-1.00" shape="1907.58,1217.20 1816.26,1197.71"/>