<?xml version="1.0" encoding="UTF-8"?>

<!-- generated on Mon Aug  7 11:36:28 2017 by Netedit Version 0.30.0
<?xml version="1.0" encoding="UTF-8"?>

<configuration xmlns:xsi="http://www.w3.org/2001/XMLSchema-instance" xsi:noNamespaceSchemaLocation="http://sumo.dlr.de/xsd/netconvertConfiguration.xsd">

    <input>
        <sumo-net-file value="callao.net.xml"/>
    </input>

    <output>
        <output-file value="callao.net.xml"/>
    </output>

    <processing>
        <no-turnarounds value="true"/>
        <offset.disable-normalization value="true"/>
        <lefthand value="false"/>
        <junctions.corner-detail value="0"/>
        <rectangular-lane-cut value="false"/>
    </processing>

    <visualisation>
        <registry-viewport value="true"/>
    </visualisation>

</configuration>
-->

<net version="0.27" xmlns:xsi="http://www.w3.org/2001/XMLSchema-instance" xsi:noNamespaceSchemaLocation="http://sumo.dlr.de/xsd/net_file.xsd">

    <location netOffset="-265677.22,1334561.85" convBoundary="0.00,0.00,2187.65,2246.59" origBoundary="-77.155539,-12.064104,-77.132453,-12.043852" projParameter="+proj=utm +zone=18 +ellps=WGS84 +datum=WGS84 +units=m +no_defs"/>

    <type id="highway.bridleway" priority="1" numLanes="1" speed="2.78" allow="pedestrian" oneway="1" width="2.00"/>
    <type id="highway.bus_guideway" priority="1" numLanes="1" speed="8.33" allow="bus" oneway="1"/>
    <type id="highway.cycleway" priority="1" numLanes="1" speed="5.56" allow="bicycle" oneway="0" width="1.00"/>
    <type id="highway.footway" priority="1" numLanes="1" speed="2.78" allow="pedestrian" oneway="1" width="2.00"/>
    <type id="highway.ford" priority="1" numLanes="1" speed="2.78" allow="army" oneway="0"/>
    <type id="highway.living_street" priority="3" numLanes="1" speed="2.78" disallow="tram rail_urban rail rail_electric ship" oneway="0"/>
    <type id="highway.motorway" priority="13" numLanes="2" speed="44.44" allow="private emergency authority army vip passenger hov taxi bus coach delivery truck trailer motorcycle evehicle custom1 custom2" oneway="1"/>
    <type id="highway.motorway_link" priority="12" numLanes="1" speed="22.22" allow="private emergency authority army vip passenger hov taxi bus coach delivery truck trailer motorcycle evehicle custom1 custom2" oneway="1"/>
    <type id="highway.path" priority="1" numLanes="1" speed="2.78" allow="bicycle pedestrian" oneway="1" width="2.00"/>
    <type id="highway.pedestrian" priority="1" numLanes="1" speed="2.78" allow="pedestrian" oneway="1" width="2.00"/>
    <type id="highway.primary" priority="9" numLanes="2" speed="27.78" disallow="tram rail_urban rail rail_electric ship" oneway="0"/>
    <type id="highway.primary_link" priority="8" numLanes="1" speed="22.22" disallow="tram rail_urban rail rail_electric ship" oneway="0"/>
    <type id="highway.raceway" priority="14" numLanes="2" speed="83.33" allow="vip" oneway="0"/>
    <type id="highway.residential" priority="4" numLanes="1" speed="13.89" disallow="tram rail_urban rail rail_electric ship" oneway="0"/>
    <type id="highway.secondary" priority="7" numLanes="2" speed="27.78" disallow="tram rail_urban rail rail_electric ship" oneway="0"/>
    <type id="highway.secondary_link" priority="6" numLanes="1" speed="22.22" disallow="tram rail_urban rail rail_electric ship" oneway="0"/>
    <type id="highway.service" priority="2" numLanes="1" speed="5.56" allow="delivery bicycle pedestrian" oneway="0"/>
    <type id="highway.services" priority="1" numLanes="1" speed="8.33" disallow="tram rail_urban rail rail_electric ship" oneway="0"/>
    <type id="highway.stairs" priority="1" numLanes="1" speed="1.39" allow="pedestrian" oneway="1" width="2.00"/>
    <type id="highway.step" priority="1" numLanes="1" speed="1.39" allow="pedestrian" oneway="1" width="2.00"/>
    <type id="highway.steps" priority="1" numLanes="1" speed="1.39" allow="pedestrian" oneway="1" width="2.00"/>
    <type id="highway.tertiary" priority="6" numLanes="1" speed="22.22" disallow="tram rail_urban rail rail_electric ship" oneway="0"/>
    <type id="highway.tertiary_link" priority="5" numLanes="1" speed="22.22" disallow="tram rail_urban rail rail_electric ship" oneway="0"/>
    <type id="highway.track" priority="1" numLanes="1" speed="5.56" disallow="tram rail_urban rail rail_electric ship" oneway="0"/>
    <type id="highway.trunk" priority="11" numLanes="2" speed="27.78" disallow="tram rail_urban rail rail_electric bicycle pedestrian ship" oneway="0"/>
    <type id="highway.trunk_link" priority="10" numLanes="1" speed="22.22" disallow="tram rail_urban rail rail_electric bicycle pedestrian ship" oneway="0"/>
    <type id="highway.unclassified" priority="5" numLanes="1" speed="13.89" disallow="tram rail_urban rail rail_electric ship" oneway="0"/>
    <type id="highway.unsurfaced" priority="1" numLanes="1" speed="8.33" disallow="tram rail_urban rail rail_electric ship" oneway="0"/>
    <type id="railway.light_rail" priority="15" numLanes="1" speed="27.78" allow="rail_urban" oneway="1"/>
    <type id="railway.preserved" priority="15" numLanes="1" speed="27.78" allow="rail" oneway="1"/>
    <type id="railway.rail" priority="15" numLanes="1" speed="83.33" allow="rail rail_electric" oneway="1"/>
    <type id="railway.subway" priority="15" numLanes="1" speed="27.78" allow="rail_urban" oneway="1"/>
    <type id="railway.tram" priority="15" numLanes="1" speed="13.89" allow="tram" oneway="1"/>

    <edge id=":1172961256_0" function="internal">
        <lane id=":1172961256_0_0" index="0" disallow="tram rail_urban rail rail_electric ship" speed="11.11" length="9.56" shape="1271.94,1433.10 1272.07,1430.56 1272.37,1428.68 1272.21,1427.00 1270.94,1425.03"/>
        <lane id=":1172961256_0_1" index="1" disallow="tram rail_urban rail rail_electric ship" speed="11.11" length="9.56" shape="1275.24,1432.92 1275.31,1429.73 1275.49,1427.40 1275.09,1425.32 1273.41,1422.84"/>
    </edge>
    <edge id=":1172961256_2" function="internal">
        <lane id=":1172961256_2_0" index="0" disallow="tram rail_urban rail rail_electric ship" speed="11.11" length="10.55" shape="1275.24,1432.92 1275.52,1430.79 1276.62,1428.73 1278.52,1426.75 1281.23,1424.83"/>
    </edge>
    <edge id=":1172961256_3" function="internal">
        <lane id=":1172961256_3_0" index="0" disallow="tram rail_urban rail rail_electric ship" speed="11.11" length="10.02" shape="1279.74,1431.13 1276.69,1430.16 1274.74,1429.06 1273.09,1427.48 1270.94,1425.03"/>
        <lane id=":1172961256_3_1" index="1" disallow="tram rail_urban rail rail_electric ship" speed="11.11" length="10.02" shape="1280.60,1427.95 1278.09,1427.13 1276.51,1426.20 1275.17,1424.87 1273.41,1422.84"/>
    </edge>
    <edge id=":1172961256_5" function="internal">
        <lane id=":1172961256_5_0" index="0" disallow="tram rail_urban rail rail_electric ship" speed="11.11" length="0.67" shape="1280.60,1427.95 1279.99,1427.67"/>
    </edge>
    <edge id=":1172961256_8" function="internal">
        <lane id=":1172961256_8_0" index="0" speed="11.11" length="4.15" shape="1279.99,1427.67 1279.47,1427.43 1279.19,1426.75 1279.78,1425.88 1281.23,1424.83"/>
    </edge>
    <edge id=":1172961256_6" function="internal">
        <lane id=":1172961256_6_0" index="0" disallow="tram rail_urban rail rail_electric ship" speed="13.89" length="4.72" shape="1268.02,1431.19 1268.99,1430.32 1269.38,1429.36 1269.21,1428.33 1268.47,1427.22"/>
    </edge>
    <edge id=":1172961256_7" function="internal">
        <lane id=":1172961256_7_0" index="0" disallow="tram rail_urban rail rail_electric ship" speed="13.89" length="14.74" shape="1268.02,1431.19 1270.69,1429.12 1272.97,1426.99 1275.65,1424.66 1279.52,1422.01"/>
    </edge>
    <edge id=":1172961267_0" function="internal">
        <lane id=":1172961267_0_0" index="0" disallow="tram rail_urban rail rail_electric ship" speed="11.11" length="5.06" shape="946.77,667.61 946.52,666.23 945.89,665.29 944.88,664.78 943.48,664.70"/>
    </edge>
    <edge id=":1172961267_1" function="internal">
        <lane id=":1172961267_1_0" index="0" disallow="tram rail_urban rail rail_electric ship" speed="8.33" length="10.33" shape="946.77,667.61 946.67,657.28"/>
    </edge>
    <edge id=":1172961267_2" function="internal">
        <lane id=":1172961267_2_0" index="0" disallow="tram rail_urban rail rail_electric ship" speed="11.11" length="10.96" shape="946.77,667.61 947.09,664.75 948.27,662.57 950.33,661.06 953.26,660.22"/>
    </edge>
    <edge id=":1172961267_3" function="internal">
        <lane id=":1172961267_3_0" index="0" disallow="tram rail_urban rail rail_electric ship" speed="8.33" length="4.82" shape="946.77,667.61 947.55,666.34 948.36,665.89 949.20,666.27 950.07,667.48"/>
    </edge>
    <edge id=":1172961267_4" function="internal">
        <lane id=":1172961267_4_0" index="0" disallow="tram rail_urban rail rail_electric ship" speed="11.11" length="6.05" shape="953.75,663.49 952.09,663.95 950.92,664.77 950.25,665.94 950.07,667.48"/>
    </edge>
    <edge id=":1172961267_5" function="internal">
        <lane id=":1172961267_5_0" index="0" disallow="tram rail_urban rail rail_electric ship" speed="13.89" length="10.34" shape="953.75,663.49 943.48,664.70"/>
    </edge>
    <edge id=":1172961267_6" function="internal">
        <lane id=":1172961267_6_0" index="0" disallow="tram rail_urban rail rail_electric ship" speed="11.11" length="5.60" shape="953.75,663.49 950.61,663.50 948.38,662.47"/>
    </edge>
    <edge id=":1172961267_7" function="internal">
        <lane id=":1172961267_7_0" index="0" disallow="tram rail_urban rail rail_electric ship" speed="13.89" length="2.52" shape="953.75,663.49 952.40,662.85 951.88,662.10 951.91,662.00"/>
    </edge>
    <edge id=":1172961267_16" function="internal">
        <lane id=":1172961267_16_0" index="0" speed="11.11" length="5.60" shape="948.38,662.47 947.07,660.40 946.67,657.28"/>
    </edge>
    <edge id=":1172961267_17" function="internal">
        <lane id=":1172961267_17_0" index="0" speed="13.89" length="2.30" shape="951.91,662.00 952.16,661.22 953.26,660.22"/>
    </edge>
    <edge id=":1172961267_8" function="internal">
        <lane id=":1172961267_8_0" index="0" disallow="tram rail_urban rail rail_electric ship" speed="11.11" length="5.21" shape="949.97,657.33 950.16,658.78 950.77,659.75 951.80,660.23 953.26,660.22"/>
    </edge>
    <edge id=":1172961267_9" function="internal">
        <lane id=":1172961267_9_0" index="0" disallow="tram rail_urban rail rail_electric ship" speed="8.33" length="10.14" shape="949.97,657.33 950.07,667.48"/>
    </edge>
    <edge id=":1172961267_10" function="internal">
        <lane id=":1172961267_10_0" index="0" disallow="tram rail_urban rail rail_electric ship" speed="11.11" length="10.96" shape="949.97,657.33 949.52,660.35 948.29,662.59 946.28,664.04 943.48,664.70"/>
    </edge>
    <edge id=":1172961267_11" function="internal">
        <lane id=":1172961267_11_0" index="0" disallow="tram rail_urban rail rail_electric ship" speed="8.33" length="4.82" shape="949.97,657.33 949.13,658.56 948.29,658.96 947.48,658.53 946.67,657.28"/>
    </edge>
    <edge id=":1172961267_12" function="internal">
        <lane id=":1172961267_12_0" index="0" disallow="tram rail_urban rail rail_electric ship" speed="11.11" length="6.03" shape="943.20,661.42 944.69,661.05 945.77,660.24 946.43,658.98 946.67,657.28"/>
    </edge>
    <edge id=":1172961267_13" function="internal">
        <lane id=":1172961267_13_0" index="0" disallow="tram rail_urban rail rail_electric ship" speed="13.89" length="10.13" shape="943.20,661.42 953.26,660.22"/>
    </edge>
    <edge id=":1172961267_14" function="internal">
        <lane id=":1172961267_14_0" index="0" disallow="tram rail_urban rail rail_electric ship" speed="11.11" length="5.07" shape="943.20,661.42 946.11,661.58 948.04,662.55"/>
    </edge>
    <edge id=":1172961267_15" function="internal">
        <lane id=":1172961267_15_0" index="0" disallow="tram rail_urban rail rail_electric ship" speed="13.89" length="2.41" shape="943.20,661.42 944.50,662.13 944.99,662.92"/>
    </edge>
    <edge id=":1172961267_18" function="internal">
        <lane id=":1172961267_18_0" index="0" speed="11.11" length="5.49" shape="948.04,662.55 948.22,662.65 949.54,664.61 950.07,667.48"/>
    </edge>
    <edge id=":1172961267_19" function="internal">
        <lane id=":1172961267_19_0" index="0" speed="13.89" length="2.41" shape="944.99,662.92 944.65,663.78 943.48,664.70"/>
    </edge>
    <edge id=":1172961273_0" function="internal">
        <lane id=":1172961273_0_0" index="0" disallow="tram rail_urban rail rail_electric ship" speed="8.33" length="5.00" shape="500.50,446.07 499.17,445.71 498.05,445.87 497.14,446.53 496.42,447.70"/>
    </edge>
    <edge id=":1172961273_1" function="internal">
        <lane id=":1172961273_1_0" index="0" disallow="tram rail_urban rail rail_electric ship" speed="8.33" length="6.21" shape="498.88,442.00 496.42,447.70"/>
        <lane id=":1172961273_1_1" index="1" disallow="tram rail_urban rail rail_electric ship" speed="8.33" length="6.21" shape="495.85,440.69 493.39,446.40"/>
    </edge>
    <edge id=":1199791587_0" function="internal">
        <lane id=":1199791587_0_0" index="0" allow="delivery bicycle pedestrian" speed="5.56" length="4.82" shape="724.15,1731.34 722.91,1732.17 721.99,1732.24 721.39,1731.54 721.09,1730.08"/>
    </edge>
    <edge id=":1199791588_0" function="internal">
        <lane id=":1199791588_0_0" index="0" allow="delivery bicycle pedestrian" speed="5.56" length="4.82" shape="708.17,1553.87 706.87,1553.13 706.40,1552.34 706.76,1551.48 707.93,1550.57"/>
    </edge>
    <edge id=":1199791589_0" function="internal">
        <lane id=":1199791589_0_0" index="0" allow="delivery bicycle pedestrian" speed="5.56" length="4.82" shape="696.95,1406.46 695.64,1405.76 695.15,1404.98 695.48,1404.12 696.63,1403.18"/>
    </edge>
    <edge id=":1273459514_0" function="internal">
        <lane id=":1273459514_0_0" index="0" allow="delivery bicycle pedestrian" speed="9.73" length="5.20" shape="1555.77,1626.07 1554.81,1624.95 1553.74,1624.36 1552.58,1624.31 1551.33,1624.79"/>
    </edge>
    <edge id=":1273459514_1" function="internal">
        <lane id=":1273459514_1_0" index="0" allow="delivery bicycle pedestrian" speed="9.73" length="10.52" shape="1555.77,1626.07 1554.53,1623.45 1554.45,1621.09 1555.52,1618.99 1557.75,1617.14"/>
    </edge>
    <edge id=":1273459514_2" function="internal">
        <lane id=":1273459514_2_0" index="0" disallow="tram rail_urban rail rail_electric ship" speed="13.89" length="4.82" shape="1555.77,1626.07 1555.78,1624.58 1556.24,1623.78 1557.15,1623.67 1558.52,1624.24"/>
    </edge>
    <edge id=":1273459514_3" function="internal">
        <lane id=":1273459514_3_0" index="0" disallow="tram rail_urban rail rail_electric ship" speed="9.73" length="5.05" shape="1559.47,1619.96 1558.40,1620.84 1557.89,1621.85 1557.93,1622.98 1558.52,1624.24"/>
    </edge>
    <edge id=":1273459514_4" function="internal">
        <lane id=":1273459514_4_0" index="0" allow="delivery bicycle pedestrian" speed="5.56" length="9.47" shape="1559.47,1619.96 1551.33,1624.79"/>
    </edge>
    <edge id=":1273459514_5" function="internal">
        <lane id=":1273459514_5_0" index="0" allow="delivery bicycle pedestrian" speed="5.56" length="4.82" shape="1559.47,1619.96 1557.99,1619.90 1557.21,1619.41 1557.13,1618.49 1557.75,1617.14"/>
    </edge>
    <edge id=":1273459514_6" function="internal">
        <lane id=":1273459514_6_0" index="0" allow="delivery bicycle pedestrian" speed="5.56" length="9.38" shape="1549.69,1621.92 1557.75,1617.14"/>
    </edge>
    <edge id=":1273459514_7" function="internal">
        <lane id=":1273459514_7_0" index="0" disallow="tram rail_urban rail rail_electric ship" speed="9.73" length="10.27" shape="1549.69,1621.92 1552.22,1620.93 1554.54,1620.99 1556.64,1622.09 1558.52,1624.24"/>
    </edge>
    <edge id=":1273459514_8" function="internal">
        <lane id=":1273459514_8_0" index="0" allow="delivery bicycle pedestrian" speed="5.56" length="4.82" shape="1549.69,1621.92 1551.17,1622.02 1551.94,1622.53 1551.99,1623.45 1551.33,1624.79"/>
    </edge>
    <edge id=":1273521992_0" function="internal">
        <lane id=":1273521992_0_0" index="0" disallow="tram rail_urban rail rail_electric ship" speed="13.89" length="9.21" shape="1579.12,1661.69 1574.25,1653.88"/>
    </edge>
    <edge id=":1273521992_1" function="internal">
        <lane id=":1273521992_1_0" index="0" disallow="tram rail_urban rail rail_electric ship" speed="13.89" length="5.02" shape="1579.12,1661.69 1578.11,1659.18 1578.14,1656.87"/>
    </edge>
    <edge id=":1273521992_2" function="internal">
        <lane id=":1273521992_2_0" index="0" disallow="tram rail_urban rail rail_electric ship" speed="13.89" length="2.41" shape="1579.12,1661.69 1579.21,1660.21 1579.72,1659.44"/>
    </edge>
    <edge id=":1273521992_9" function="internal">
        <lane id=":1273521992_9_0" index="0" speed="13.89" length="5.17" shape="1578.14,1656.87 1579.20,1654.78 1581.30,1652.89"/>
    </edge>
    <edge id=":1273521992_10" function="internal">
        <lane id=":1273521992_10_0" index="0" speed="13.89" length="2.41" shape="1579.72,1659.44 1580.64,1659.38 1581.97,1660.03"/>
    </edge>
    <edge id=":1273521992_3" function="internal">
        <lane id=":1273521992_3_0" index="0" disallow="tram rail_urban rail rail_electric ship" speed="13.89" length="5.13" shape="1583.16,1655.62 1582.07,1656.58 1581.52,1657.64 1581.48,1658.79 1581.97,1660.03"/>
    </edge>
    <edge id=":1273521992_4" function="internal">
        <lane id=":1273521992_4_0" index="0" disallow="tram rail_urban rail rail_electric ship" speed="13.89" length="10.38" shape="1583.16,1655.62 1580.60,1656.87 1578.26,1657.00 1576.14,1656.00 1574.25,1653.88"/>
    </edge>
    <edge id=":1273521992_5" function="internal">
        <lane id=":1273521992_5_0" index="0" disallow="tram rail_urban rail rail_electric ship" speed="13.89" length="4.82" shape="1583.16,1655.62 1581.67,1655.63 1580.86,1655.18 1580.74,1654.27 1581.30,1652.89"/>
    </edge>
    <edge id=":1273521992_6" function="internal">
        <lane id=":1273521992_6_0" index="0" disallow="tram rail_urban rail rail_electric ship" speed="13.89" length="5.01" shape="1577.00,1652.05 1577.91,1653.08 1578.93,1653.56 1580.06,1653.50 1581.30,1652.89"/>
    </edge>
    <edge id=":1273521992_7" function="internal">
        <lane id=":1273521992_7_0" index="0" disallow="tram rail_urban rail rail_electric ship" speed="13.89" length="9.41" shape="1577.00,1652.05 1581.97,1660.03"/>
    </edge>
    <edge id=":1273521992_8" function="internal">
        <lane id=":1273521992_8_0" index="0" disallow="tram rail_urban rail rail_electric ship" speed="13.89" length="2.52" shape="1577.00,1652.05 1576.99,1653.54 1576.53,1654.34 1576.43,1654.35"/>
    </edge>
    <edge id=":1273521992_11" function="internal">
        <lane id=":1273521992_11_0" index="0" speed="13.89" length="2.30" shape="1576.43,1654.35 1575.62,1654.45 1574.25,1653.88"/>
    </edge>
    <edge id=":1273586870_0" function="internal">
        <lane id=":1273586870_0_0" index="0" disallow="tram rail_urban rail rail_electric ship" speed="13.89" length="5.05" shape="1801.07,1611.53 1798.46,1607.21"/>
    </edge>
    <edge id=":1273586870_1" function="internal">
        <lane id=":1273586870_1_0" index="0" disallow="tram rail_urban rail rail_electric ship" speed="13.89" length="2.41" shape="1801.07,1611.53 1801.14,1610.04 1801.63,1609.26"/>
    </edge>
    <edge id=":1273586870_4" function="internal">
        <lane id=":1273586870_4_0" index="0" speed="13.89" length="2.41" shape="1801.63,1609.26 1802.55,1609.19 1803.90,1609.82"/>
    </edge>
    <edge id=":1273586870_2" function="internal">
        <lane id=":1273586870_2_0" index="0" disallow="tram rail_urban rail rail_electric ship" speed="13.89" length="5.05" shape="1801.28,1605.50 1803.90,1609.82"/>
    </edge>
    <edge id=":1273586870_3" function="internal">
        <lane id=":1273586870_3_0" index="0" disallow="tram rail_urban rail rail_electric ship" speed="13.89" length="2.41" shape="1801.28,1605.50 1801.22,1606.99 1800.73,1607.77"/>
    </edge>
    <edge id=":1273586870_5" function="internal">
        <lane id=":1273586870_5_0" index="0" speed="13.89" length="2.41" shape="1800.73,1607.77 1799.81,1607.84 1798.46,1607.21"/>
    </edge>
    <edge id=":1273601399_0" function="internal">
        <lane id=":1273601399_0_0" index="0" allow="delivery bicycle pedestrian" speed="5.56" length="4.82" shape="1026.65,1352.95 1025.96,1354.27 1025.19,1354.77 1024.32,1354.45 1023.37,1353.31"/>
    </edge>
    <edge id=":1273691524_0" function="internal">
        <lane id=":1273691524_0_0" index="0" disallow="tram rail_urban rail rail_electric ship" speed="13.89" length="4.82" shape="1375.47,2117.24 1374.86,2118.60 1374.12,2119.15 1373.24,2118.88 1372.21,2117.80"/>
    </edge>
    <edge id=":1273747348_0" function="internal">
        <lane id=":1273747348_0_0" index="0" disallow="tram rail_urban rail rail_electric ship" speed="12.50" length="5.08" shape="1702.48,1702.49 1699.78,1698.19"/>
    </edge>
    <edge id=":1273747348_1" function="internal">
        <lane id=":1273747348_1_0" index="0" disallow="tram rail_urban rail rail_electric ship" speed="12.50" length="2.41" shape="1702.48,1702.49 1702.51,1701.01 1702.99,1700.22"/>
    </edge>
    <edge id=":1273747348_4" function="internal">
        <lane id=":1273747348_4_0" index="0" speed="12.50" length="2.41" shape="1702.99,1700.22 1703.91,1700.12 1705.27,1700.73"/>
    </edge>
    <edge id=":1273747348_2" function="internal">
        <lane id=":1273747348_2_0" index="0" disallow="tram rail_urban rail rail_electric ship" speed="12.50" length="5.05" shape="1702.58,1696.45 1705.27,1700.73"/>
    </edge>
    <edge id=":1273747348_3" function="internal">
        <lane id=":1273747348_3_0" index="0" disallow="tram rail_urban rail rail_electric ship" speed="12.50" length="2.41" shape="1702.58,1696.45 1702.54,1697.93 1702.06,1698.72"/>
    </edge>
    <edge id=":1273747348_5" function="internal">
        <lane id=":1273747348_5_0" index="0" speed="12.50" length="2.41" shape="1702.06,1698.72 1701.14,1698.81 1699.78,1698.19"/>
    </edge>
    <edge id=":1273753120_0" function="internal">
        <lane id=":1273753120_0_0" index="0" disallow="tram rail_urban rail rail_electric ship" speed="13.89" length="4.98" shape="1816.00,1679.69 1812.46,1683.18"/>
    </edge>
    <edge id=":1273787138_0" function="internal">
        <lane id=":1273787138_0_0" index="0" disallow="tram rail_urban rail rail_electric ship" speed="11.11" length="4.82" shape="1420.57,1123.01 1422.05,1122.87 1422.89,1123.25 1423.09,1124.15 1422.65,1125.57"/>
    </edge>
    <edge id=":1273802042_0" function="internal">
        <lane id=":1273802042_0_0" index="0" allow="delivery bicycle pedestrian" speed="5.56" length="4.96" shape="744.55,883.50 743.56,882.58 742.51,882.17 741.39,882.30 740.20,882.95"/>
    </edge>
    <edge id=":1273802042_1" function="internal">
        <lane id=":1273802042_1_0" index="0" allow="delivery bicycle pedestrian" speed="5.56" length="10.03" shape="744.55,883.50 743.13,881.14 742.74,878.86 743.37,876.67 745.01,874.56"/>
    </edge>
    <edge id=":1273802042_2" function="internal">
        <lane id=":1273802042_2_0" index="0" allow="delivery bicycle pedestrian" speed="5.56" length="4.82" shape="744.55,883.50 744.42,882.02 744.80,881.18 745.71,880.99 747.12,881.44"/>
    </edge>
    <edge id=":1273802042_3" function="internal">
        <lane id=":1273802042_3_0" index="0" allow="delivery bicycle pedestrian" speed="5.56" length="5.05" shape="747.30,876.94 746.48,877.99 746.18,879.09 746.40,880.24 747.12,881.44"/>
    </edge>
    <edge id=":1273802042_4" function="internal">
        <lane id=":1273802042_4_0" index="0" allow="delivery bicycle pedestrian" speed="5.56" length="9.31" shape="747.30,876.94 745.29,878.84 743.88,880.11 742.41,881.29 740.20,882.95"/>
    </edge>
    <edge id=":1273802042_5" function="internal">
        <lane id=":1273802042_5_0" index="0" allow="delivery bicycle pedestrian" speed="5.56" length="4.82" shape="747.30,876.94 745.83,877.20 744.96,876.89 744.69,876.01 745.01,874.56"/>
    </edge>
    <edge id=":1273802042_6" function="internal">
        <lane id=":1273802042_6_0" index="0" allow="delivery bicycle pedestrian" speed="5.56" length="8.91" shape="738.22,880.31 740.33,878.72 741.75,877.59 743.10,876.38 745.01,874.56"/>
    </edge>
    <edge id=":1273802042_7" function="internal">
        <lane id=":1273802042_7_0" index="0" allow="delivery bicycle pedestrian" speed="5.56" length="10.17" shape="738.22,880.31 740.65,878.98 742.95,878.72 745.10,879.54 747.12,881.44"/>
    </edge>
    <edge id=":1273802042_8" function="internal">
        <lane id=":1273802042_8_0" index="0" allow="delivery bicycle pedestrian" speed="5.56" length="4.82" shape="738.22,880.31 739.70,880.23 740.53,880.64 740.69,881.55 740.20,882.95"/>
    </edge>
    <edge id=":1273822860_0" function="internal">
        <lane id=":1273822860_0_0" index="0" disallow="tram rail_urban rail rail_electric ship" speed="12.50" length="5.00" shape="1688.82,1680.59 1686.18,1676.35"/>
    </edge>
    <edge id=":1273822860_1" function="internal">
        <lane id=":1273822860_1_0" index="0" disallow="tram rail_urban rail rail_electric ship" speed="12.50" length="2.41" shape="1688.82,1680.59 1688.87,1679.11 1689.35,1678.32"/>
    </edge>
    <edge id=":1273822860_4" function="internal">
        <lane id=":1273822860_4_0" index="0" speed="12.50" length="2.41" shape="1689.35,1678.32 1690.27,1678.23 1691.63,1678.85"/>
    </edge>
    <edge id=":1273822860_2" function="internal">
        <lane id=":1273822860_2_0" index="0" disallow="tram rail_urban rail rail_electric ship" speed="12.50" length="5.00" shape="1688.98,1674.60 1691.63,1678.85"/>
    </edge>
    <edge id=":1273822860_3" function="internal">
        <lane id=":1273822860_3_0" index="0" disallow="tram rail_urban rail rail_electric ship" speed="12.50" length="2.41" shape="1688.98,1674.60 1688.93,1676.09 1688.45,1676.87"/>
    </edge>
    <edge id=":1273822860_5" function="internal">
        <lane id=":1273822860_5_0" index="0" speed="12.50" length="2.41" shape="1688.45,1676.87 1687.53,1676.96 1686.18,1676.35"/>
    </edge>
    <edge id=":1273829790_0" function="internal">
        <lane id=":1273829790_0_0" index="0" disallow="tram rail_urban rail rail_electric ship" speed="13.89" length="5.01" shape="1782.54,1713.07 1779.00,1716.60"/>
    </edge>
    <edge id=":1273841595_0" function="internal">
        <lane id=":1273841595_0_0" index="0" disallow="tram rail_urban rail rail_electric ship" speed="13.89" length="5.05" shape="1607.43,1642.92 1606.52,1641.87 1605.50,1641.37 1604.36,1641.42 1603.12,1642.03"/>
    </edge>
    <edge id=":1273841595_1" function="internal">
        <lane id=":1273841595_1_0" index="0" disallow="tram rail_urban rail rail_electric ship" speed="13.89" length="9.53" shape="1607.43,1642.92 1602.27,1634.91"/>
    </edge>
    <edge id=":1273841595_2" function="internal">
        <lane id=":1273841595_2_0" index="0" disallow="tram rail_urban rail rail_electric ship" speed="13.89" length="5.24" shape="1607.43,1642.92 1606.23,1640.29 1606.18,1637.94"/>
    </edge>
    <edge id=":1273841595_3" function="internal">
        <lane id=":1273841595_3_0" index="0" disallow="tram rail_urban rail rail_electric ship" speed="13.89" length="2.41" shape="1607.43,1642.92 1607.45,1641.43 1607.92,1640.64"/>
    </edge>
    <edge id=":1273841595_16" function="internal">
        <lane id=":1273841595_16_0" index="0" speed="13.89" length="5.24" shape="1606.18,1637.94 1607.27,1635.85 1609.52,1634.03"/>
    </edge>
    <edge id=":1273841595_17" function="internal">
        <lane id=":1273841595_17_0" index="0" speed="13.89" length="2.41" shape="1607.92,1640.64 1608.84,1640.54 1610.20,1641.14"/>
    </edge>
    <edge id=":1273841595_4" function="internal">
        <lane id=":1273841595_4_0" index="0" disallow="tram rail_urban rail rail_electric ship" speed="13.89" length="5.04" shape="1611.21,1636.87 1610.13,1637.74 1609.60,1638.74 1609.63,1639.87 1610.20,1641.14"/>
    </edge>
    <edge id=":1273841595_5" function="internal">
        <lane id=":1273841595_5_0" index="0" disallow="tram rail_urban rail rail_electric ship" speed="13.89" length="9.59" shape="1611.21,1636.87 1603.12,1642.03"/>
    </edge>
    <edge id=":1273841595_6" function="internal">
        <lane id=":1273841595_6_0" index="0" disallow="tram rail_urban rail rail_electric ship" speed="13.89" length="10.35" shape="1611.21,1636.87 1608.57,1637.98 1606.20,1638.03 1604.10,1637.01 1602.27,1634.91"/>
    </edge>
    <edge id=":1273841595_7" function="internal">
        <lane id=":1273841595_7_0" index="0" disallow="tram rail_urban rail rail_electric ship" speed="13.89" length="4.82" shape="1611.21,1636.87 1609.72,1636.79 1608.95,1636.30 1608.88,1635.38 1609.52,1634.03"/>
    </edge>
    <edge id=":1273841595_8" function="internal">
        <lane id=":1273841595_8_0" index="0" disallow="tram rail_urban rail rail_electric ship" speed="13.89" length="5.16" shape="1605.05,1633.12 1605.95,1634.15 1607.00,1634.64 1608.19,1634.60 1609.52,1634.03"/>
    </edge>
    <edge id=":1273841595_9" function="internal">
        <lane id=":1273841595_9_0" index="0" disallow="tram rail_urban rail rail_electric ship" speed="13.89" length="9.53" shape="1605.05,1633.12 1610.20,1641.14"/>
    </edge>
    <edge id=":1273841595_10" function="internal">
        <lane id=":1273841595_10_0" index="0" disallow="tram rail_urban rail rail_electric ship" speed="13.89" length="5.22" shape="1605.05,1633.12 1606.20,1635.66 1606.27,1637.99 1606.22,1638.08"/>
    </edge>
    <edge id=":1273841595_11" function="internal">